38
x2-3-NO2-Ph-N2-OTf-v2_RB3LYP-aug-cc-pVDZ-Opt
 C         4.094268764990      0.257287239640      1.053068384773
 C         4.131284283271     -0.893623948285      0.246251275492
 C         5.309331855227     -1.475555374660     -0.252421158266
 C         6.490149332705     -0.839203340121      0.094378757673
 C         6.516774378330      0.308957604302      0.892800311854
 C         5.315835202901      0.849074358046      1.367703505090
 H         3.133258979262      0.635803747184      1.401487884246
 H         5.316377133523     -2.367899027513     -0.874320605505
 H         7.477138470885      0.762653268656      1.131231094897
 H         5.331443564334      1.741514502148      1.990883326647
 N         2.937186843235     -1.527369059444     -0.099456998484
 N         2.035449096764     -2.091832185467     -0.424340912995
 S        -0.059406565519      0.371442696327      0.682507530720
 O        -0.204454807047     -0.651641368216     -0.415488863059
 O        -1.340051787618      0.643262328989      1.419279806539
 O         1.160237771789      0.182339891156      1.536750669701
 C         0.287658739691      1.987009849733     -0.241235438126
 F        -0.713330287302      2.265352553625     -1.089253588338
 F         1.431602569190      1.860129292136     -0.948447755493
 F         0.428352404542      3.002245421995      0.619785554469
 H        -2.489350265313     -0.619413669986     -0.150645337928
 C        -3.563747979136     -0.754302175201     -0.274555242882
 C        -4.471391883526     -0.264558872391      0.682594841793
 C        -4.106325470791     -1.409311597652     -1.378107007977
 C        -5.868601301610     -0.395362937914      0.593533913594
 C        -5.490753592307     -1.564214378148     -1.513819814013
 H        -3.436498868240     -1.800994563414     -2.141589813148
 C        -6.342855497388     -1.055659419281     -0.527741095012
 H        -6.552092262022     -0.008922605026      1.346282149627
 H        -5.924432016202     -2.073109538401     -2.372857607897
 N        -3.987932566478      0.397205009845      1.809346607067
 N        -3.661494343207      0.927939692863      2.728216262553
 N         7.768222776830     -1.412376631858     -0.408499778299
 O         8.795132237203     -0.833864206322     -0.088674994629
 O         7.686550648997     -2.417564475441     -1.102044389505
 N        -7.814739485401     -1.221958315110     -0.673043107591
 O        -8.206601821206     -1.808210361335     -1.670256268327
 O        -8.512494253355     -0.758069405460      0.218797900736
