35
x2-4-NO2-Ph-N2-BF4-v2_RB3LYP-aug-cc-pVDZ-Opt
 C         3.492340660320     -0.394048584513      0.474126065934
 C         3.730435190432      0.836112516171      1.108700194058
 C         4.735658107304      1.748192968609      0.737020610646
 C         5.545906028338      1.399022032663     -0.336285399963
 C         5.320912940016      0.176700653297     -0.975504848615
 C         4.321279844547     -0.719965244122     -0.595287846985
 H         2.684033515252     -1.038076842374      0.814087224572
 H         4.869590334824      2.688217675759      1.268755214010
 H         6.342099289075      2.053833347772     -0.682322544144
 H         4.197559828426     -1.654302040827     -1.137586566578
 N         2.929017990836      1.187198440244      2.191877476618
 N         2.317392743144      1.483455038325      3.068143712790
 H        -1.996050361322     -0.017668520105     -0.762876023423
 C        -3.052253581626      0.142339501349     -0.556788632035
 C        -3.718247765204     -0.660424673142      0.383776756670
 C        -3.802429987356      1.137019177423     -1.176523117594
 C        -5.073011708380     -0.523703390047      0.738479355484
 C        -5.147235102961      1.284467145670     -0.833041678005
 H        -3.356801597483      1.799991633151     -1.914205545045
 C        -5.796946027043      0.480497678573      0.107457557366
 H        -5.531559749693     -1.176619216099      1.478591340959
 N        -2.999319679775     -1.674170847236      1.010859809865
 N        -2.453649293557     -2.501147347825      1.509066074578
 N         6.197770827536     -0.186424787327     -2.129758214202
 O         5.977597088880     -1.258828367201     -2.673106537109
 O         7.064278038409      0.619065786271     -2.437853000312
 F         0.605873381964      0.992616585869      0.711990959971
 F        -1.163896783363      0.113238589647      1.934313855970
 F         0.951191470286     -0.840189392512      2.064954579018
 F        -0.321066811932     -1.054621278830      0.136254495096
 B         0.014474578360     -0.189303693916      1.218112517714
 H        -6.847661292163      0.648464679199      0.331539942705
 N        -5.936281986895      2.361380092394     -1.504324733608
 O        -7.110666547636      2.466417890824     -1.181515892759
 O        -5.344033581559      3.050362792867     -2.321927163645
