42
x2-4-CH3O-Ph-N2-OTf-v1_RB3LYP-aug-cc-pVDZ-Opt
 C        -4.236025932453      0.505751451386     -0.057536873237
 C        -4.420959301074     -0.889566460345     -0.125495582231
 C        -5.688979832511     -1.489409049390     -0.332580862954
 C        -6.779047268072     -0.663269172240     -0.476835655973
 C        -6.623385206015      0.747167886399     -0.414633229990
 C        -5.347096453865      1.318972932124     -0.204281395353
 H        -3.235652286533      0.901090604237      0.121666853096
 H        -5.790848184405     -2.572282761170     -0.376469639578
 H        -7.774896392103     -1.071382540171     -0.638410182503
 H        -5.217783865522      2.396180233191     -0.149548789431
 N        -3.338435072938     -1.722917112613      0.014649234708
 N        -2.496696206552     -2.450340245651      0.111688484709
 S        -0.046885603136     -0.025043432944      0.431166435129
 O        -0.123377813895     -1.225817680956     -0.476815419990
 O         0.971599537250      0.995765391102      0.010778044172
 O        -1.383937603723      0.515316965656      0.846468525146
 C         0.663763264968     -0.726065473870      2.041436483383
 F         1.887534932893     -1.252493966197      1.807654228640
 F        -0.129888343017     -1.695871206875      2.524724873929
 F         0.787878374385      0.235018815628      2.967374022103
 H         3.013314750089      0.934466788677      0.148411532590
 C         3.964180258500      0.661578728065     -0.310645443225
 C         3.960170417911     -0.161439494990     -1.454643406573
 C         5.184901336454      1.095386494181      0.177038450597
 C         5.146155310576     -0.557569427617     -2.123314777509
 C         6.383840779770      0.711473810977     -0.467594334368
 H         5.200716020169      1.730798423629      1.057931369506
 C         6.348195775284     -0.117199339474     -1.620961653753
 H         5.101106983274     -1.193343388063     -3.005705146151
 H         7.288810418834     -0.393267774373     -2.093616567486
 N         2.763250992533     -0.605114009102     -1.959284876481
 N         1.817391584646     -0.996450784289     -2.405596375168
 O         7.601620456421      1.075791991886     -0.071675970082
 O        -7.746658510396      1.446501553354     -0.564878300469
 C         7.760240609090      1.916019962055      1.090044633265
 H         8.838085196001      2.059527501441      1.191503724833
 H         7.265598517380      2.883303591756      0.932881249050
 H         7.362124501143      1.414751619604      1.981798447743
 C        -7.710217967507      2.887330811616     -0.514010006793
 H        -7.077991667440      3.282911547112     -1.319581287465
 H        -8.745175694792      3.203030879142     -0.661956331744
 H        -7.350440811625      3.226605337112      0.466055515906
