23
2-NO2PhN2~OTf_TS1_UB3LYP-aug-cc-pVDZ-OptTS
 C        -0.739923154622     -0.054579802858     -4.307425141517
 C        -0.513201053624      0.906869582666     -5.336751811235
 C        -1.616106600699      1.489469030052     -5.724834644276
 C        -2.947498698865      1.379507221979     -5.358759074551
 C        -3.135978448115      0.427619639698     -4.347329766389
 C        -2.037191837987     -0.277308781874     -3.832919034695
 H         0.109175257367     -0.605996288806     -3.902882699192
 H         0.933715649838      1.153221875021     -5.832517214062
 H        -4.149127521516      0.262444083859     -3.985738207575
 N        -1.313505991874      2.760919680354     -7.077515479840
 N        -0.760913679882      3.378091237830     -7.807830820557
 S         3.034262645763      0.367105924528     -5.694099279763
 C         3.183607293733     -0.730310772736     -7.233695406569
 O         4.330498941131      1.047357252915     -5.543180283244
 O         2.482630672341     -0.504141151913     -4.628794552621
 O         1.932106509561      1.405316650286     -6.202730787349
 F         3.595207787543     -0.008058197052     -8.281313419109
 F         4.066083267669     -1.706114971191     -6.992289296398
 F         1.989513542588     -1.276725571255     -7.518548817353
 H        -2.206256686580     -1.012808243120     -3.046077863837
 N        -4.083649656864      2.123737650821     -5.905814870590
 O        -5.191180568106      1.882963376563     -5.445392094709
 O        -3.851167668799      2.943720574232     -6.793959434567
