25
4-MeOPhN2~OTf_TS1_UB3LYP-aug-cc-pVDZ-OptTS
 C        -1.014670075238     -0.281651783574     -4.587153315843
 C        -0.659363294689      0.838146711150     -5.415414910027
 C        -1.745701094137      1.498666881321     -5.657680638597
 C        -3.081262174733      1.539105446411     -5.429026656172
 C        -3.374513077183      0.424961856207     -4.617548060837
 C        -2.355654446188     -0.470501882052     -4.203805876097
 H        -0.197574732027     -0.939556819234     -4.297747639214
 H         0.543282677765      0.992558296033     -5.741530695615
 H        -3.813736731734      2.259682543948     -5.776574530843
 H        -4.403965281023      0.253326946904     -4.304775909321
 N        -1.148738479310      3.604340276776     -7.183533471336
 N        -0.628637622123      4.366143755608     -7.788925948096
 S         2.759058998332      0.016975766991     -5.625417946762
 C         3.067236988485     -0.837647888855     -7.288927948734
 O         4.083003559897      0.491213529285     -5.170912296932
 O         2.022231594520     -0.995738013360     -4.813083379562
 O         1.826668299318      1.188829874418     -6.064055394294
 F         3.674671108630     -0.003217186820     -8.144278223168
 F         3.842098566893     -1.917083923793     -7.108240416886
 F         1.897192141362     -1.232023838701     -7.828612749601
 O        -2.779048717836     -1.496604278133     -3.426463383918
 C        -1.804050866151     -2.443517511700     -2.968790759345
 H        -2.362263167847     -3.168423387379     -2.370613383292
 H        -1.322356310323     -2.950098710085     -3.816993766023
 H        -1.043207864660     -1.951886661365     -2.346292699486
