14
PhN2~Cl_TS1_UB3LYP-aug-cc-pVDZ-OptTS
 C        -1.637375402224     -1.485731367813     -1.323217080944
 C        -0.226087137838     -1.573005411678     -1.322304299538
 C         0.282352419145     -0.407605203260     -0.836181208094
 C        -0.158340238666      0.738441387548     -0.382353474709
 C        -1.578936082062      0.782253782732     -0.401148334508
 C        -2.291198780403     -0.328165357333     -0.870200895789
 H        -2.207633572645     -2.342120633370     -1.685505342133
 H         0.330485996980     -2.442310956849     -1.660823563882
 H         0.504496542698      1.661386131286      0.009332304804
 H        -2.085414058324      1.681843293794     -0.049049385781
 N         2.423599602460     -0.371155216077     -0.766273468755
 N         3.170679353234      0.380729962540     -0.441942436762
 Cl        1.562820660007      2.940968143783      0.555951175408
 H        -3.380849302362     -0.295638555304     -0.885053989314
