18
PhN2~BF4_TS1_UB3LYP-aug-cc-pVDZ-OptTS
 C        -1.108558839730     -0.169185117761      0.632931446714
 C         0.226487728201     -0.149893384870      0.172490636223
 C         0.572668107903      1.094769273094     -0.232292350471
 C        -0.058728077641      2.293745317367     -0.315722932449
 C        -1.384340100597      2.199647922124      0.158906812504
 C        -1.898285088300      0.984018910687      0.620530724236
 H        -1.496588069968     -1.113306836308      1.014841670722
 H         0.907879491491     -0.994947617847      0.210876670937
 H         0.396756710599      3.217710684874     -0.656159890975
 H        -1.990359954771      3.105612812610      0.161637760933
 N         2.061361833464      1.015212846926     -1.617493352973
 N         2.774347839766      1.013434101003     -2.458433166581
 B         3.140317872435      0.384177012306      1.358487388254
 F         4.405307900683      0.753816110408      1.761563215450
 F         2.316033848580     -0.057528035698      2.395538551010
 F         2.482800927602      1.585298074104      0.762599821544
 F         3.167542006211     -0.582448697113      0.313886598484
 H        -2.923944135928      0.937566624097      0.983510396437
