16
2-HOOC-4-BrPhN2+_UB3LYP-aug-cc-pVDZ-Opt
 C        -0.502759269606     -1.994686892870      0.000000000000
 C        -1.460749064830     -0.962318694181      0.000000000000
 C        -1.111910979895      0.410965912618      0.000000000000
 C         0.239299536396      0.729536115417      0.000000000000
 C         1.210858864548     -0.291421418266      0.000000000000
 C         0.841529673007     -1.647495646647      0.000000000000
 H        -0.812393366630     -3.038935650766      0.000000000000
 H         0.540600164427      1.774815401545      0.000000000000
 H         1.602044147197     -2.426445967501      0.000000000000
 N        -2.788191240293     -1.358646499038      0.000000000000
 N        -3.797413741724     -1.829066210983      0.000000000000
 Br        3.030919555147      0.173734766381      0.000000000000
 C        -2.198261423045      1.445079743194      0.000000000000
 O        -3.369987355798      1.133851627304      0.000000000000
 O        -1.724137371819      2.690912425189      0.000000000000
 H        -2.470848127081      3.315920988605      0.000000000000
