17
2-MeOPhN2+_UB3LYP-aug-cc-pVDZ-Opt
 C         0.392234930860     -0.412866356887     -0.000084526962
 C        -0.317988266447     -1.623047820761     -0.000087949028
 C        -0.388178714827      0.785441279055     -0.000024723779
 C        -1.711777915893     -1.609251090388     -0.000062232311
 C        -1.805064231735      0.801933141680      0.000011939310
 C        -2.460186321119     -0.412128440207     -0.000013774045
 N         0.294324648220      1.967593273724      0.000003942549
 N         0.871561686589      2.923528874788      0.000002167921
 H         0.215536462941     -2.569870369558     -0.000123635956
 H        -2.241232809813     -2.562302479534     -0.000075730580
 H        -2.338971149744      1.750675335567      0.000055369465
 H        -3.547905156262     -0.444100070739      0.000011208070
 O         1.709174371868     -0.253894560466     -0.000065700210
 C         2.572520690590     -1.421878470414      0.000037529338
 H         2.398024827902     -2.015220560012     -0.905654502547
 H         3.587089007836     -1.019168618377      0.000140296367
 H         2.397867939035     -2.015233067469      0.905690322398
