15
2-NO2PhN2+_UB3LYP-aug-cc-pVDZ-Opt
 C         2.635331966161      0.241137255055      0.000072321445
 C         1.642276719475      1.220854110705     -0.000134672560
 C         0.300919124872      0.800085487110     -0.000053935123
 C        -0.052589895093     -0.566553306017      0.000120788833
 C         0.946628129518     -1.522492905395      0.000323229276
 C         2.291554368633     -1.114926026969      0.000297107553
 H         3.681367945082      0.544833465153      0.000046995251
 H         1.887498090908      2.281849127302     -0.000294107046
 N        -0.661708670671      1.805726170507     -0.000248484808
 N        -1.276167764593      2.732327745290     -0.000706488271
 H         3.075357960961     -1.872067255213      0.000450556652
 H         0.666497638041     -2.574643760188      0.000495855196
 N        -1.475803401382     -0.972582531463      0.000157903401
 O        -2.291454056265     -0.050561675803      0.000041416535
 O        -1.722508155645     -2.160185900075      0.000231513665
