13
4-BrPhN2+_UB3LYP-aug-cc-pVDZ-Opt
 C         1.452657004805      1.244860637072      0.000113923402
 C         2.121567658582     -0.000011645015      0.000053372988
 C         1.452595947523     -1.244850795183      0.000101389678
 C         0.068435931923     -1.230420118620      0.000132734847
 C        -0.620060376844      0.000053817030      0.000148198108
 C         0.068496332010      1.230491419988      0.000142333441
 H         2.009973724930      2.180342693664      0.000099491343
 H         2.009866012027     -2.180361057967      0.000070144936
 H        -0.484447899697     -2.167775799036      0.000142807260
 H        -0.484346658203      2.167872022159      0.000156444526
 N         3.496186994941     -0.000045807372     -0.000005026785
 N         4.612414663780     -0.000053467799      0.000018828451
 Br       -2.496939335776      0.000098101080      0.000225357804
