16
4-CF3PhN2+_UB3LYP-aug-cc-pVDZ-Opt
 C        -1.403483657623     -1.239238725008     -0.000106543996
 C        -0.016825831442     -1.207026598450     -0.000336185511
 C        -2.071808062151      0.002682556631      0.000000568971
 C         0.659248075124      0.025411870928     -0.000463418107
 C        -1.423822099432      1.252672168112     -0.000132645472
 C        -0.033561393817      1.244298949997     -0.000361616921
 N        -3.457873826669     -0.007608812795      0.000204570892
 N        -4.570894671303     -0.016634942748      0.000286458489
 H         0.543160261623     -2.141009049914     -0.000480441221
 H        -1.990726712177      2.182126562086     -0.000041398782
 H         0.512656652707      2.185305495321     -0.000530788593
 H        -1.956054514447     -2.177228240259     -0.000026212817
 C         2.183850014463      0.005207061324     -0.000019384405
 F         2.635666638274     -0.650316100848     -1.088113372047
 F         2.634732171216     -0.639357848744      1.095093595235
 F         2.699376955651      1.245445654368     -0.005993185715
