14
4-MeOC6H3_UB3LYP-aug-cc-pVDZ-Opt
 C        -1.331608411114     -0.349519774563     -0.063688932290
 C        -0.784866274949      0.777944170480     -0.026623468411
 C         0.560212976542      1.073787364964     -0.107415549575
 C         1.323413434164     -0.119685993199     -0.247721188592
 O         2.673610872947      0.080514665142     -0.335511133471
 C         3.527046997496     -1.050385243591     -0.477503702938
 C         0.714946540750     -1.400042234307     -0.290768578879
 C        -0.684732545041     -1.568621741377     -0.196976374783
 H         1.043406308590      2.047877689703     -0.076165143221
 H         4.544464812622     -0.649951630862     -0.525746518243
 H         3.306010453378     -1.602616428988     -1.403932224320
 H         3.439874986375     -1.726464436901      0.387055115448
 H         1.331235022022     -2.289875049834     -0.399054986918
 H        -1.149845173782     -2.552351356667     -0.230357313805
