17
4-MeOPhN2+_UB3LYP-aug-cc-pVDZ-Opt
 C        -0.330079388197      0.401666017669      0.503234401101
 C         0.666972005467      0.607398867299     -0.427811401350
 C         0.556175971077      1.713525201488     -1.303725423430
 C        -0.538707173323      2.618102167374     -1.261941756549
 C        -1.521430038330      2.397254789905     -0.328605072746
 C        -1.435616445653      1.292309338823      0.564808075273
 H        -0.255360244792     -0.444148240620      1.180945018035
 H         1.522403021227     -0.063307323520     -0.491727366960
 H        -0.590009718170      3.458580674204     -1.952073646234
 H        -2.381866120458      3.059876490784     -0.253742311680
 N         1.540935070660      1.917976177569     -2.224473739916
 N         2.346481417185      2.090292505889     -2.982189847562
 O        -2.437752068513      1.179095840009      1.418128405162
 C        -2.470537563129      0.099049253269      2.383278794018
 H        -3.392829110136      0.254750123101      2.946140128961
 H        -1.603550986375      0.164886652093      3.052457089529
 H        -2.501928628542     -0.868108535335      1.866098654348
