15
4-NH2PhN2+_UB3LYP-aug-cc-pVDZ-Opt
 C        -1.197120588306      0.142917654256      0.650391552179
 C         0.116874908376      0.232337388373      0.267611344032
 C         0.559824641374      1.422883432977     -0.370767459714
 C        -0.315488319393      2.514778546229     -0.621284210389
 C        -1.626158259919      2.407833122214     -0.231682018257
 C        -2.102077966470      1.223763820220      0.412714933684
 H        -1.555608136234     -0.761314313848      1.140899609909
 H         0.811265670922     -0.587200203502      0.445711549265
 H         0.053378446558      3.413779117015     -1.112482499322
 H        -2.312433576809      3.233758534712     -0.415012750025
 N         1.857647886104      1.520028462460     -0.752561802201
 N         2.931084880588      1.600603642829     -1.068397163319
 N        -3.386526124589      1.127767777733      0.790813327545
 H        -4.041391838260      1.881020584989      0.631592001384
 H        -3.741871623942      0.299142433342      1.247653585228
