14
4-NO2C6H3N2_UB3LYP-aug-cc-pVDZ-Opt
 C        -1.235686444648     -0.432637800238     -0.011832919276
 N        -2.633621520327     -0.607357495683      0.009958515085
 N        -3.747103146685     -0.667399926007      0.020363064998
 C        -0.875841078668      0.913553973096     -0.131434450881
 C         0.549753050437      1.031221326760     -0.148365569170
 C         1.380099193140     -0.078376914740     -0.055108402132
 N         2.860288623459      0.115467490741     -0.079057965905
 O         3.285211903486      1.259705595086     -0.181389389772
 O         3.565293583178     -0.887854100503      0.005691901058
 C         0.914080270551     -1.408638369245      0.063602279530
 C        -0.448485546265     -1.611725684538      0.087790486395
 H         1.015887825048      2.012695307132     -0.236436732894
 H         1.621954290235     -2.229239789643      0.132103021826
 H        -0.881971002941     -2.608133612219      0.177066161138
