12
4-NO2C6H3_UB3LYP-aug-cc-pVDZ-Opt
 C        -1.209245242914     -0.421647602239     -0.011155287246
 C        -0.742237486259      0.735585931324     -0.114723981188
 C         0.590343522758      1.099562409396     -0.153744015955
 C         1.391276069739     -0.063678278922     -0.056343879157
 N         2.860218357238      0.114584111391     -0.079808546862
 O         3.289903874500      1.260453205930     -0.183124537764
 O         3.564136725138     -0.888113356331      0.004963768552
 C         0.880432963638     -1.373368661337      0.060931924462
 C        -0.507260145605     -1.615685413419      0.089423020958
 H         1.023487613600      2.091309603949     -0.242880115856
 H         1.583461288012     -2.200788522985      0.129760839139
 H        -0.923247539846     -2.616583426756      0.179250810918
