7
AcO-_UB3LYP-aug-cc-pVDZ-Opt
 C         4.124820000000     -0.627160000000      2.062040000000
 H         4.503880000000     -1.659090000000      2.089940000000
 H         4.473110000000     -0.131920000000      1.141230000000
 H         3.023520000000     -0.639870000000      2.025300000000
 C         4.597080000000      0.189340000000      3.304360000000
 O         5.325490000000     -0.423170000000      4.132370000000
 O         4.194790000000      1.384870000000      3.344360000000
