5
BF4-_UB3LYP-aug-cc-pVDZ-Opt
 B         5.976510000000      1.234430000000      0.916720000000
 F         6.450080000000      1.904820000000     -0.244610000000
 F         6.450070000000      1.904790000000      2.078080000000
 F         4.554150000000      1.234330000000      0.916710000000
 F         6.449990000000     -0.106570000000      0.916710000000
