7
CF3COO-_UB3LYP-aug-cc-pVDZ-Opt
 C         6.735787534864      1.046062260446      0.566969667126
 F         7.714160212295      0.363743988769     -0.111259254289
 F         7.042554348804      2.375957841657      0.424677726885
 F         6.945249800969      0.764821574852      1.885411940368
 C         5.283485922966      0.703968693419      0.031748198751
 O         4.510980740090      0.220297504670      0.882045111519
 O         5.146281440012      0.979748136187     -1.177593390361
