7
H2SO4_UB3LYP-aug-cc-pVDZ-Opt
 S         5.008927406129      0.684724415305      0.181275286645
 O         3.939028689396      1.538212678982      0.706657577509
 O         5.007974009480     -0.780908906880      0.215581183904
 O         5.274612179086      1.085729319539     -1.394263307186
 H         4.986068855434      2.007266179125     -1.512390122723
 O         6.390742974137      1.225724966836      0.896400468732
 H         7.058155886338      0.523351347093      0.808538913119
