6
HBF4_UB3LYP-aug-cc-pVDZ-Opt
 B         5.034873852504      0.620689898004      1.927643692461
 F         5.749515899918     -0.455558380997      1.593795964169
 F         5.474507366130      1.432836689229      2.880405706336
 F         6.259204344075      1.845849696309      0.093838404037
 F         3.843754673426      0.816631785958      1.376793026905
 H         6.848743863946      1.241770311497     -0.291376793908
