5
HOOCH_UB3LYP-aug-cc-pVDZ-Opt
 C         4.629073220970      0.106247846784      3.309173463633
 O         5.326706872775     -0.389875367813      4.156941482476
 O         4.184056398556      1.380130588181      3.319275883145
 H         4.528447629548      1.803962807572      4.124702295269
 H         4.260015878151     -0.411065874725      2.407306875477
