6
HSO4-_UB3LYP-aug-cc-pVDZ-Opt
 S         5.263852194313      0.673952182083      0.124311835609
 O         4.193322646171      1.542680016779      0.741833642406
 O         4.914376914228     -0.777659997774      0.001241567384
 O         5.266593067738      1.242484748725     -1.515274074503
 H         4.580905853516      1.924494660955     -1.490391703625
 O         6.658159324033      0.944548389233      0.600778732728
