13
PhN2+_UB3LYP-aug-cc-pVDZ-Opt
 C        -1.129446782026      0.132104347454      0.772168507970
 C         0.193885984927      0.252475354290      0.368340196804
 C         0.536071717279      1.410728860902     -0.361338936505
 C        -0.373379231516      2.435397548834     -0.699261226750
 C        -1.686520831645      2.275071822478     -0.276420513252
 C        -2.059935350257      1.134208606399      0.452344804620
 H        -1.439932303334     -0.745479360974      1.337403339376
 H         0.940281077462     -0.505883812138      0.599137607149
 H        -0.050518257143      3.307078181075     -1.266207772688
 H        -2.423684478723      3.040449825552     -0.514794190423
 N         1.848644870832      1.550847430181     -0.772469395801
 N         2.906210550005      1.663527669715     -1.103846830957
 H        -3.094666965861      1.024223526232      0.777394410456
