11
s-Ph+_UB3LYP-aug-cc-pVDZ-Opt
 C        -1.504883480649     -1.489251236966     -1.329343713376
 C        -0.068299512866     -1.432861288455     -1.306942971027
 C         0.197697106444     -0.238350209966     -0.789148281722
 C        -0.279794028328      0.899416417335     -0.295858149514
 C        -1.706622817141      0.736259641925     -0.366133286838
 C        -2.288146726991     -0.428840152520     -0.869763713724
 H        -1.934168742354     -2.411292703421     -1.728317817647
 H         0.585877135756     -2.229929848902     -1.653707303842
 H         0.222006554989      1.784964065887      0.088242233734
 H        -2.295937420709      1.580128786552      0.000216565054
 H        -3.373938068151     -0.511953471471     -0.904843561098
