16
t-4-MeOC6H3N2_UB3LYP-aug-cc-pVDZ-Opt
 C        -1.459297159402     -0.246416975592     -0.028813454209
 N        -2.899137216978     -0.230087922918      0.087064944485
 N        -3.596429979064     -1.189344062335      0.055687618938
 C        -0.756479687858      0.948085747987      0.024652014712
 C         0.602871388856      1.083363826025     -0.070978490551
 C         1.351500540413     -0.104828152830     -0.239653366545
 O         2.696342518044      0.057363821305     -0.331306094120
 C         3.515888978655     -1.099901562013     -0.502451973929
 C         0.691791974296     -1.348175636235     -0.300837249703
 C        -0.697989901716     -1.415276866076     -0.196286747088
 H         1.115446655699      2.043812611836     -0.023642163565
 H         4.543166084504     -0.727407355633     -0.550258635685
 H         3.269740990569     -1.623731622503     -1.437904351687
 H         3.412185252856     -1.787311126575      0.350066499068
 H         1.253938439205     -2.269400632258     -0.429815431902
 H        -1.208438878080     -2.377684092184     -0.243793118219
