14
t-4-MeOC6H3_UB3LYP-aug-cc-pVDZ-Opt
 C        -1.434913167976     -0.385191964703     -0.057981009541
 C        -0.818717876813      0.875222795748     -0.016996488861
 C         0.545405391241      1.018616240402     -0.110058722756
 C         1.341465262340     -0.143515672243     -0.250971381132
 O         2.686615686069      0.077723962658     -0.337339080188
 C         3.545614443555     -1.049778604330     -0.478815215969
 C         0.738771812896     -1.407298840680     -0.293299459876
 C        -0.665002066689     -1.519404291256     -0.195036052903
 H         1.026817344180      1.997754534935     -0.078250370960
 H         4.561056233596     -0.644930159060     -0.526553990870
 H         3.326979433517     -1.603291838411     -1.405007677241
 H         3.460176298148     -1.726431428711      0.385380757699
 H         1.331322142530     -2.312447303222     -0.401063502589
 H        -1.132420936595     -2.506417431128     -0.228417804812
