23
3-NO2PhN2~OTf_UB3LYP-aug-cc-pVDZ-Opt
 C        -2.012195781398      2.011150997602      0.274944355369
 C        -0.954995282914      1.127732322858      0.057507125044
 C        -1.273793435177     -0.205397610806     -0.234067059782
 C        -2.586628073271     -0.691654498503     -0.309305580715
 C        -3.598822547781      0.228076746860     -0.071183786668
 C        -3.337139423671      1.570201625127      0.217526906200
 H        -1.796974556207      3.053440553794      0.503510057930
 H         0.088846137011      1.419242194371      0.134124459013
 H        -2.817233687792     -1.729482895451     -0.535864093436
 N        -0.257558563330     -1.136479268566     -0.500884788821
 N         0.318509578795     -2.025916141035     -0.857182286887
 S         2.739859781930     -0.582071035617      0.695825648741
 C         3.353963829171      0.645203092219     -0.613244803810
 O         1.386105525829      0.007786777309      1.058566440586
 O         3.764881453632     -0.556725047597      1.761829659898
 O         2.585248023779     -1.865248452195     -0.084279206564
 F         2.442099131852      0.733050723898     -1.619791823597
 F         3.498540782557      1.873993759297     -0.086269710300
 F         4.521630903629      0.258774382376     -1.138639007245
 H        -4.170552876735      2.246336032817      0.394936111420
 N        -5.003683947656     -0.243258874504     -0.134389135836
 O        -5.880505415205      0.584596573998      0.076454466395
 O        -5.186201557048     -1.426851958252     -0.394523946934
