18
4-MeOPhN2~Br_UB3LYP-aug-cc-pVDZ-Water-Opt
 C        -1.331734900481     -1.729316132242     -1.525241693263
 C         0.000151590082     -1.406968467847     -1.645601806950
 C         0.476742074835     -0.292506095626     -0.914446222452
 C        -0.348096927136      0.490634398450     -0.078340638508
 C        -1.683363130372      0.149724428095      0.028575033849
 C        -2.185659077124     -0.960481466535     -0.692142207075
 H        -1.749539719650     -2.576249310126     -2.065426943733
 H         0.670346015347     -1.983681861970     -2.278760865691
 H         0.082326046828      1.337540809525      0.458315797546
 H        -2.329104041376      0.743694930155      0.668311279605
 N         1.793856154566      0.055633632556     -1.010715869168
 N         2.856636861788      0.396369366632     -1.042085634546
 Br        2.308700910472      2.965191655195      1.100819847346
 O        -3.455150086361     -1.364452418461     -0.652371032545
 C        -4.407850559118     -0.650454514044      0.165709727874
 H        -5.354590798142     -1.175100575892      0.022291004107
 H        -4.497247779226      0.388843762710     -0.173393645273
 H        -4.109822634933     -0.691322140576      1.220523868877
