22
4-MePhN2~HSO4_UB3LYP-aug-cc-pVDZ-Opt
 C        -0.154580241260     -0.018857024122      0.327703923760
 C         0.818906799892      0.303699440215     -0.613243960645
 C         1.040830717574      1.666687355114     -0.859858753308
 C         0.351648313451      2.700386041358     -0.188191248199
 C        -0.595960487383      2.332561469956      0.748649359712
 C        -0.864899632226      0.970628550994      1.022111858953
 H        -0.336305435720     -1.069927222602      0.546132582061
 H         1.420879646869     -0.439010848483     -1.128894161274
 H         0.570883779720      3.744485960954     -0.402720201538
 H        -1.138549854324      3.109044373899      1.287588686971
 N         1.973370564600      2.057846734940     -1.804191716357
 N         2.652374896976      2.503077324753     -2.564319311408
 S         4.166988347880     -0.086919148004     -0.367901416454
 O         3.532648660969     -0.061235880029     -1.739741972627
 O         3.235294484864     -0.618592225621      0.680555515037
 O         5.578257802744     -0.545651984386     -0.294639644675
 O         4.250442235162      1.609174656301     -0.048133926673
 H         5.012260831017      1.716137831317      0.540139981818
 C        -1.886450296485      0.605561985915      2.064362390224
 H        -1.551336335881      0.935925083745      3.058979058900
 H        -2.846400329130      1.102682577176      1.864395249095
 H        -2.053404469308     -0.476505053389      2.103217706625
