18
4-MeOPhN2~F_UB3LYP-aug-cc-pVDZ-Water-Opt
 C        -1.298183627359     -1.695460267385     -1.508453322814
 C         0.034024105978     -1.350670926935     -1.611503905996
 C         0.496105402084     -0.239042462522     -0.878411014422
 C        -0.348347559727      0.526643589464     -0.050307562663
 C        -1.684592442941      0.169035140281      0.043927859668
 C        -2.167289488896     -0.942257265374     -0.683166345110
 H        -1.698996839290     -2.545974982527     -2.056205318105
 H         0.717989041520     -1.916839301625     -2.240380363984
 H         0.079763282894      1.372694354047      0.486402358843
 H        -2.343620464174      0.752942109315      0.679619059052
 N         1.821892505174      0.127180852735     -0.963058557996
 N         2.750295972530      0.735695228570     -0.749464982165
 F         2.162716364247      2.219144056696      0.563496357609
 O        -3.440662247369     -1.362544193218     -0.654983455323
 C        -4.398520817119     -0.656928059810      0.158095993133
 H        -5.343436579325     -1.184930233765      0.011520353871
 H        -4.494777946896      0.383789559324     -0.176787435061
 H        -4.107758661333     -0.695377197271      1.215680281463
