24
4-MeOPhN2~OAc_UB3LYP-aug-cc-pVDZ-Opt
 C        11.654345829648      8.190878421546     -1.553868210881
 C        10.492694232123      7.544080299041     -1.939123636404
 C        10.277145817131      6.193168464436     -1.597056607478
 C        11.254430906097      5.493384752152     -0.865917073920
 C        12.425488088383      6.143885149516     -0.480937915315
 C        12.632273530331      7.493279635269     -0.819573166669
 H        11.831827950655      9.234274143157     -1.808708235868
 H         9.726921630474      8.068033053098     -2.509038496146
 H        11.091967969286      4.453453503705     -0.608511048762
 H        13.170631138681      5.587751740339      0.081963422159
 N         9.055594430840      5.666503017304     -2.051600366392
 N         8.445039221830      4.649751837478     -1.966930082022
 O        13.736535259883      8.205430862252     -0.488505059499
 C        14.772127922196      7.562939407606      0.257603886944
 H        15.543780148439      8.324040368215      0.403097013042
 H        15.192179651174      6.713698869739     -0.300903482271
 H        14.401027292154      7.222173808031      1.235198853229
 O         7.224110058577      2.598482324959     -0.662455918259
 C         8.430982322706      2.493270936343     -0.720458304635
 O         9.276019304149      3.458808740892     -1.129634225280
 C         9.189632316633      1.237864424981     -0.326175768437
 H        10.005447981068      1.478368355517      0.368333477786
 H         8.496485042932      0.529321621862      0.137892046404
 H         9.637711954611      0.785156262561     -1.221691101325
