21
4-MeOPhN2~NO3_UB3LYP-aug-cc-pVDZ-Opt
 C        -1.127618217911     -0.348364328118     -0.961230046888
 C         0.121789705006     -0.132786589583     -1.507625827148
 C         1.027639424971      0.698147118319     -0.812771095487
 C         0.700480606962      1.303513513730      0.401516953131
 C        -0.561936307191      1.083471441792      0.939639066115
 C        -1.480812630472      0.255543330307      0.267034962980
 H        -1.854145467906     -0.986007741498     -1.461499128895
 H         0.408712668048     -0.596184413341     -2.449774968625
 H         1.446766574622      1.926948229522      0.886556630640
 H        -0.815333358963      1.553120212731      1.885667172529
 N         2.276009638791      0.886515070328     -1.425317554472
 N         2.992021867068      0.760125205741     -2.279505749879
 O        -2.720717183249     -0.024035673103      0.710261650458
 C        -3.157104690372      0.534315488167      1.957008333731
 H        -4.175328300065      0.163521862647      2.099652556347
 H        -3.164374936326      1.632288054472      1.911369345921
 H        -2.517341893848      0.192088400628      2.782194074763
 O         4.990171266200      1.582988073273      1.525724796942
 N         4.028186177792      1.212511482184      0.855242806362
 O         3.617303877277      0.030990600504      0.830061943078
 O         3.396131179567      2.093990661298      0.134114078396
