24
4-MeOPhN2~OOCCF3_UB3LYP-aug-cc-pVDZ-Water-Opt
 C        11.776317350997      8.225521906042     -1.576068954669
 C        10.535192152411      7.843167157912     -2.028826231585
 C        10.085827502165      6.541009403209     -1.698920667289
 C        10.849093115536      5.631784872367     -0.935995543624
 C        12.093597334839      6.037342574988     -0.491097715194
 C        12.566983324753      7.333508123985     -0.805357750966
 H        12.169343565999      9.214784039318     -1.800974394832
 H         9.913892994697      8.511370023235     -2.620173440506
 H        10.436490598056      4.645396800199     -0.722892914833
 H        12.691866346152      5.348317650348      0.097275483076
 N         8.854352251133      6.142455688954     -2.135471343421
 N         7.849797015705      5.811796794462     -2.489138083863
 O        13.750388368379      7.811452361641     -0.420454158380
 C        14.632646772760      6.984873783832      0.369985050646
 H        15.516878676653      7.600827619542      0.545738365207
 H        14.907249555789      6.080536614799     -0.186630948344
 H        14.157774591615      6.725423418946      1.324120623384
 O         7.483173639377      1.507245094882     -0.616103597200
 C         8.501874557970      2.221310526958     -0.673511082703
 O         8.649695274895      3.403637048835     -1.063722680649
 C         9.841906078894      1.535924477960     -0.223102669809
 F        10.611088098432      2.352052113278      0.550736981866
 F         9.666119069765      0.392615393233      0.483118314073
 F        10.601651763028      1.206556511076     -1.310742640384
