19
4-MeOPhN2~OH_UB3LYP-aug-cc-pVDZ-Water-Opt
 C        11.662500802326      8.205165867444     -1.543142266810
 C        10.470226401200      7.585667155112     -1.878143966832
 C        10.211874246206      6.241020910000     -1.523513065837
 C        11.204953526917      5.532721436928     -0.812290215582
 C        12.408437404065      6.153282206054     -0.472430099040
 C        12.646535426404      7.490171989144     -0.833807919039
 H        11.853856409478      9.241034933711     -1.819888070989
 H         9.704480688118      8.132722051026     -2.426817639249
 H        11.048379518963      4.502335189961     -0.521182013322
 H        13.152434895261      5.580786216075      0.075164034544
 N         8.940182316935      5.798951043003     -1.957961889820
 N         8.392659619380      4.704327787435     -1.826145769634
 O        13.783307930968      8.171883625161     -0.546527634883
 C        14.824640481621      7.498092372999      0.175011877151
 H        15.625736015280      8.233304033861      0.287590068112
 H        15.193590854824      6.630891945497     -0.389701700643
 H        14.471250747849      7.179834162630      1.165410136202
 O         9.154670018772      3.704519241127     -1.119774017959
 H         8.549582695436      2.947587832834     -1.133849846371
