18
4-MeOPhN2~F_UB3LYP-aug-cc-pVDZ-Opt
 C        -1.288780386713     -1.675729551788     -1.495774791612
 C         0.044318629875     -1.314435387775     -1.586280122775
 C         0.529364980666     -0.206807623630     -0.862673827541
 C        -0.336894507336      0.539929131005     -0.043190215882
 C        -1.678109024334      0.173678849324      0.045729856858
 C        -2.161426300135     -0.932372481008     -0.677134983547
 H        -1.682324952062     -2.528048774409     -2.046946986480
 H         0.732584951691     -1.878103283344     -2.214415928379
 H         0.054863419227      1.389463855329      0.506320871708
 H        -2.337330914485      0.758339841832      0.682060855819
 N         1.894848403897      0.067799476656     -1.029361700219
 N         2.689668878138      0.849297591245     -0.644587735974
 F         2.050827796073      1.948481018528      0.384872372514
 O        -3.446231319290     -1.360491659736     -0.651843420437
 C        -4.391269379191     -0.655970615852      0.156813839349
 H        -5.342293996417     -1.177382274127      0.017034450094
 H        -4.490828020944      0.388520779035     -0.172518504470
 H        -4.104388258659     -0.689068891285      1.217915970972
