23
4-MeOPhN2~HSO4_UB3LYP-aug-cc-pVDZ-Opt
 C        -0.118990013960     -0.027743764897      0.334971557713
 C         0.829116254414      0.350366482510     -0.603217542554
 C         1.017280614609      1.724884717331     -0.837067327867
 C         0.293946583379      2.729166883940     -0.146886557366
 C        -0.635657344193      2.331233477110      0.785283988124
 C        -0.845932847583      0.950393902912      1.038934364519
 H        -0.249545278539     -1.086099669632      0.538386939331
 H         1.450356938321     -0.367427035662     -1.132855172271
 H         0.479720241186      3.782507597632     -0.347534617114
 H        -1.212497869768      3.060724159059      1.350208312932
 N         1.945000657854      2.139894488343     -1.759924901367
 N         2.655908850417      2.566996698646     -2.503984533531
 O        -1.761113976769      0.680977321614      1.980567246585
 C        -2.011188060767     -0.687255345187      2.344312644187
 H        -2.398868749671     -1.251191193746      1.485115870157
 H        -2.768235259483     -0.641288413811      3.130941084887
 H        -1.096582326199     -1.156856815374      2.729811916129
 S         4.162915084882     -0.153526755819     -0.435197494853
 O         3.513959565744     -0.068660191815     -1.796871554466
 O         3.241619277706     -0.732604586552      0.598403709353
 O         5.575652430534     -0.615074335859     -0.395339175699
 O         4.255391469562      1.523972250098     -0.032700038913
 H         5.062533758323      1.607320129158      0.495731282084
