22
4-MePhN2~HSO4_UB3LYP-aug-cc-pVDZ-Water-Opt
 C        -2.040667436536     -0.963269484258     -0.058095777061
 C        -0.960699306118     -0.091764145233     -0.027516306287
 C        -1.252799710425      1.279966313375      0.088508849563
 C        -2.562651843035      1.797684532458      0.174440172940
 C        -3.606085024889      0.889920518935      0.139939731272
 C        -3.367738213074     -0.498179501828      0.023835842488
 H        -1.849519460736     -2.031517789225     -0.147628323791
 H         0.068421641455     -0.444470042962     -0.090921335812
 H        -2.732340704786      2.867899069845      0.264026120066
 H        -4.629079849884      1.258081403647      0.204144835575
 N        -0.206056513769      2.173931880742      0.124450542131
 N         0.631629321154      2.904483906827      0.156490718910
 S         2.951831132800     -0.680814154102     -0.221929661128
 O         2.348152289080      0.683194918852     -0.389614167631
 O         1.946461582742     -1.800409986245     -0.253105904414
 O         4.178057208173     -0.939949763605     -1.047442621989
 O         3.490783793581     -0.598683997722      1.378802195525
 H         3.927173685425     -1.443052726267      1.579654229278
 C        -4.524683370551     -1.454313481147     -0.010117450462
 H        -5.122530978631     -1.361670855228      0.908083644106
 H        -5.191787897134     -1.216198575218     -0.851077541420
 H        -4.188870344841     -2.491768041640     -0.108827791860
