21
4-MeOPhN2~NO3_UB3LYP-aug-cc-pVDZ-Water-Opt
 C         2.703019659138      1.306642940698      0.052290665064
 C         1.545883086867      2.049136464398      0.060497181620
 C         0.311954570735      1.351805944155      0.034434298235
 C         0.221488307944     -0.055741524594      0.000632903401
 C         1.399283674059     -0.781023921483     -0.007038816866
 C         2.645300180709     -0.111169062760      0.018698808567
 H         3.676097281968      1.792978294460      0.071268356565
 H         1.566826026497      3.135902763233      0.085929116120
 H        -0.752619135179     -0.548769390855     -0.018912716128
 H         1.346026718129     -1.865304247442     -0.032984576515
 N        -0.839341754348      2.087683659356      0.042165888607
 N        -1.759862417210      2.717308464773      0.048762976038
 O         3.826884757863     -0.728026074185      0.013615655332
 C         3.879643522958     -2.171100956926     -0.020232762783
 H         4.943605989844     -2.416423141336     -0.019275482199
 H         3.406283883501     -2.547967957333     -0.935144583407
 H         3.394843153471     -2.590629681862      0.869811568506
 O        -4.600675532492     -1.415308108917     -0.185361708511
 N        -3.395943880369     -1.075710493500     -0.093589916539
 O        -3.085455436056      0.143505728935      0.013996018599
 O        -2.485229082611     -1.948360264636     -0.108408448047
