15
4-N2PhN2~Cl+_UB3LYP-aug-cc-pVDZ-Water-Opt
 C        -1.538324923186     -1.521293765502     -1.361569134522
 C        -0.153888211808     -1.421133816594     -1.300576689717
 C         0.404408291320     -0.251916462783     -0.769576857322
 C        -0.339172734781      0.834087428099     -0.285414234903
 C        -1.724937564054      0.745730974929     -0.336806321781
 C        -2.273641297168     -0.429597338611     -0.874561911973
 H        -2.029909374376     -2.402898554322     -1.764521518576
 H         0.481170738580     -2.228683854385     -1.656302264793
 H         0.168241840496      1.712764694319      0.109891170853
 H        -2.359323790806      1.552138809812      0.022355304241
 N         1.813034243426     -0.184187105380     -0.721607690649
 N         2.768709126306      0.393491641013     -0.488935731915
 Cl        2.492749157947      2.582638435149      0.300470187327
 N        -4.770129354120     -0.588492668213     -0.972463742893
 N        -3.665486147776     -0.519748417531     -0.929380563377
