20
4-N2PhN2~HSO4+_UB3LYP-aug-cc-pVDZ-Opt
 C         0.210901571843     -0.285578682716     -0.667648724020
 C         0.865292966253      0.908999113075     -0.898457518298
 C         1.233048153180      1.678125149505      0.221492095586
 C         0.942706167301      1.352015991308      1.556618954267
 C         0.282820331216      0.152779416552      1.789734005563
 C        -0.049535498966     -0.635908302142      0.675130813986
 H        -0.058476786114     -0.947171546766     -1.487802531598
 H         1.136251458396      1.215340309395     -1.906003535334
 N         1.957579565350      2.854295942649     -0.009395832367
 N         2.458438173636      3.826186186677     -0.200699631046
 H         0.083256330815     -0.181472622196      2.805408967067
 H         1.271838042898      1.978149301745      2.380741842876
 S         3.740105425469      0.019593632016      1.087849762841
 O         3.280872828381      0.254489611201      2.491372216266
 O         2.968877682824     -1.023960366588      0.326268988185
 O         3.825104301291      1.328140191985      0.301140443652
 O         5.283222330666     -0.519847926922      1.234262813202
 H         5.474339510394     -1.096454798674      0.474790826157
 N        -1.040941755443     -2.885949082739      1.112245776514
 N        -0.608100799390     -1.878471517365      0.917050266500
