16
4-NH2PhN2~Cl_UB3LYP-aug-cc-pVDZ-Water-Opt
 C        -2.435960067426      0.904420402760      0.001633450855
 C        -1.254739003419      1.600554652239      0.000188477439
 C        -0.037093524270      0.868027004980      0.001174642340
 C        -0.002465483950     -0.552851126933      0.003552051346
 C        -1.195347220967     -1.230612342651      0.004958369702
 C        -2.438466952741     -0.525830269736      0.004067733133
 H        -3.382706460309      1.442103955843      0.000953778633
 H        -1.239459721000      2.688065493031     -0.001655558867
 H         0.965164252616     -1.061671078424      0.004210794686
 H        -1.199470382750     -2.319680153056      0.006749410852
 N         1.134662302609      1.543073388576     -0.000197550868
 N         2.111373512989      2.092782377722     -0.001398749990
 Cl        3.472583355758     -1.417204332108      0.004998290099
 N        -3.599102547372     -1.199004981239      0.005413785355
 H        -4.486993338116     -0.717164365124      0.005077331385
 H        -3.619585919804     -2.209002827050      0.007636893663
