21
4-NH2PhN2~HSO4_UB3LYP-aug-cc-pVDZ-Water-Opt
 C         3.856868350247      0.511257629377     -0.146638829623
 C         2.910102850722      1.502054308267     -0.097278579869
 C         1.551460798544      1.134507668318      0.099524524760
 C         1.144397785500     -0.218601085270      0.247054209112
 C         2.107996539107     -1.194679350910      0.195931809541
 C         3.482773649042     -0.860757546525     -0.001657635664
 H         4.903899222366      0.768652177814     -0.297207752171
 H         3.183489133079      2.549244905815     -0.206500614728
 N         0.616553719480      2.111947646446      0.151530108077
 N        -0.153214714700      2.924278209573      0.195852217012
 H         1.823970132348     -2.240155571231      0.306983699055
 H         0.093114874606     -0.466773072707      0.398953192046
 S        -2.854911364661     -0.408018312137      0.109323218538
 O        -1.938350136878     -1.291887247949      0.903907142862
 O        -4.203415973774     -0.173614543185      0.727048467173
 O        -2.201560237529      0.840100283325     -0.419093234061
 O        -3.141137064497     -1.378509492396     -1.247261513582
 H        -3.763130257980     -0.898505671276     -1.818550400874
 N         4.415193775764     -1.825004094882     -0.050088267874
 H         5.391489393767     -1.606506692832     -0.190372127855
 H         4.167511715475     -2.799398468117      0.048880490206
