22
4-NO2PhN2~OAc_UB3LYP-aug-cc-pVDZ-Opt
 C        15.034767883749      8.555308791183     -3.129417164194
 C        13.925386351426      8.324314268156     -2.318661929858
 C        13.927716417311      7.235684107084     -1.438065631884
 C        15.049886377865      6.403581315650     -1.317714932812
 C        16.168944451851      6.647423027899     -2.108940101169
 C        16.141242930112      7.713279443109     -3.011251699380
 H        15.057527740572      9.380881294006     -3.836035157549
 H        13.057029679215      8.979240935788     -2.365315815226
 H        15.044864554272      5.578921349146     -0.608349172028
 H        17.056079538091      6.022987704359     -2.040564410372
 N        17.323070538108      7.962608853801     -3.858229301850
 O        17.273985276352      8.906700293517     -4.642652845039
 O        18.285692105707      7.210050390803     -3.730051398782
 N        12.808844381864      7.096503683789     -0.557945287511
 N        12.063865695018      6.137831391776     -0.496482864429
 C        11.618339630128      3.965208041737     -1.395190071587
 O        10.924061933502      3.723263240884     -0.445952355746
 O        12.380686264753      5.116980551905     -1.532801610211
 C        11.818100125105      3.092123299373     -2.608169598428
 H        11.389346907324      3.586321466553     -3.490853161728
 H        12.887803907624      2.939227827860     -2.801107589168
 H        11.319977310052      2.132858721620     -2.440957901051
