20
4-NO2PhN2~BF4_UB3LYP-aug-cc-pVDZ-Water-Opt
 C        -1.134968852651     -0.012738912644      0.396419985679
 C         0.186745061145      0.196712004698      0.019773440892
 C         0.507557047689      1.461151819123     -0.497486741532
 C        -0.401071086436      2.519974722063     -0.654540142439
 C        -1.715210128707      2.286345092462     -0.267167470325
 C        -2.049810577178      1.030993972719      0.245137935953
 H        -1.451080290281     -0.968714901580      0.803380438295
 H         0.952208240215     -0.568606283891      0.120179636333
 H        -0.088219215462      3.477422511586     -1.062956550228
 H        -2.468166892229      3.063131932278     -0.362059351193
 N        -3.459618394149      0.792883359502      0.651151516059
 O        -3.743792631691     -0.316286658341      1.088357182972
 O        -4.250980240637      1.720020004718      0.522929331035
 N         1.823503931309      1.679327309209     -0.894091064093
 N         2.867397810618      1.856206393293     -1.218761258077
 B         3.540699468331     -0.222937118435      1.558135008379
 F         3.196287764729     -0.737274298336      0.270558376102
 F         4.944235773091     -0.107948083109      1.658872173455
 F         2.940910134215      1.060112845605      1.698435804924
 F         3.046673078080     -1.090865710920      2.556911747810
