16
4-NO2PhN2~Cl_UB3LYP-aug-cc-pVDZ-Opt
 C        -1.468893978242     -1.562620776199     -1.319356120719
 C        -0.087606586653     -1.408559223380     -1.259728732249
 C         0.452298582990     -0.203598708547     -0.782840242412
 C        -0.361060938352      0.860438638057     -0.360352971069
 C        -1.744682814152      0.700371694440     -0.422326414839
 C        -2.271418525432     -0.501176026771     -0.897914942103
 H        -1.926404177187     -2.479031215732     -1.682008274330
 H         0.581224669525     -2.206617048964     -1.576625535291
 H         0.091719427629      1.778667109375      0.003005534257
 H        -2.415094157105      1.495617499510     -0.106491704403
 N        -3.745836805831     -0.659148107793     -0.958983707090
 O        -4.431621739449      0.285297713952     -0.584045994202
 O        -4.182114190423     -1.725155685783     -1.380899759055
 N         1.866526443194     -0.152621033558     -0.764068805139
 N         2.761614785655      0.551415769812     -0.486257323347
 Cl        2.362550003832      2.474719401583      0.275394991994
