18
PhN2~BF4_UB3LYP-aug-cc-pVDZ-Water-Opt
 C        -1.059470036692      0.295311567339      0.792578166469
 C         0.237972789957      0.646472659871      0.437048128113
 C         0.379801118020      1.762044922924     -0.409314990892
 C        -0.691996097590      2.527816184263     -0.908252246659
 C        -1.970518712485      2.142494018213     -0.526681835589
 C        -2.151377826178      1.035547897503      0.316903095427
 H        -1.220170619732     -0.560988288746      1.444941576070
 H         1.109158630499      0.094570171850      0.786428352802
 H        -0.512857550027      3.378323272803     -1.561653506268
 H        -2.829374462866      2.705270421301     -0.887328730008
 N         1.659000397783      2.133443476119     -0.780932709114
 N         2.684284408347      2.434426404586     -1.083239355864
 B         3.840207488145     -0.657281315283      1.357424855577
 F         4.684195932225     -1.251523593082      0.390532831327
 F         4.480178172349     -0.643572311872      2.618284488186
 F         3.537098647778      0.679130478922      0.965947801862
 F         2.624982001578     -1.391269023807      1.446037643390
 H        -3.160724281112      0.745783057096      0.607186435172
