15
PhN2~OH_UB3LYP-aug-cc-pVDZ-Opt
 C        12.783430525678      5.987441064102      2.204993649161
 C        12.211527970128      5.180936391439      1.223797984036
 C        11.735514465842      3.891697209281      1.534942424640
 C        11.842688339156      3.417224778720      2.860664154795
 C        12.418364180059      4.236409465780      3.834888671864
 C        12.888279248968      5.514728638629      3.517484548753
 H        13.146645276692      6.982351267421      1.947180831732
 H        12.118567200584      5.526188744020      0.194911624095
 N        11.190599903693      3.234111923706      0.397614347038
 N        10.691947879890      2.120701248734      0.291044312471
 H        13.334813676819      6.140340729256      4.291056322968
 H        12.499438797107      3.866633408516      4.857540204316
 H        11.484677839674      2.431030780137      3.124932279072
 O        10.638850251603      1.329238638593      1.508340740438
 H        10.218954444107      0.520665711665      1.182807904623
