17
PhN2~NO3_UB3LYP-aug-cc-pVDZ-Water-Opt
 C        -3.549648702360     -0.098014129636      0.114609875544
 C        -2.662076257633      0.969283567722      0.147653951950
 C        -1.288871695001      0.659228741035      0.080487735024
 C        -0.767632381244     -0.643635495024     -0.016728243753
 C        -1.693604468989     -1.681599746142     -0.047011325447
 C        -3.067912834614     -1.412983066062      0.017930686619
 H        -4.619835080611      0.093783325381      0.164182041255
 H        -2.998496138199      2.000716487974      0.221701448960
 N        -0.400198798159      1.720339315929      0.112180477183
 N         0.280141567589      2.597610654651      0.138975653346
 H        -3.777091661569     -2.239813281947     -0.007026237106
 H        -1.339460296172     -2.708229713142     -0.121807389862
 H         0.309728159664     -0.813162998893     -0.064045714351
 O         2.273901064241      0.585501453647      0.046902086226
 N         2.974361836709     -0.454167273457     -0.110309318703
 O         4.224562747250     -0.370057799605     -0.167788546429
 O         2.404610040216     -1.574612862334     -0.208725053385
