14
PhN2~Cl_UB3LYP-aug-cc-pVDZ-Opt
 C        -1.504912854746     -1.491835748331     -1.331031609257
 C        -0.116700166476     -1.388922564952     -1.287680344808
 C         0.463330216159     -0.215932596266     -0.779962850114
 C        -0.312981173049      0.857914013117     -0.313957584253
 C        -1.701373454079      0.732023229374     -0.367243553501
 C        -2.295430023737     -0.431471939208     -0.870858973046
 H        -1.970235463467     -2.395837262592     -1.722317108667
 H         0.526052190217     -2.195315972687     -1.637654976088
 H         0.176471324577      1.748862915726      0.071632002205
 H        -2.324127542682      1.552369294599     -0.011215897495
 N         1.873979474030     -0.190077107628     -0.770006903991
 N         2.802109338445      0.458277708007     -0.490042090453
 Cl        2.474726089539      2.412819109159      0.356699517304
 H        -3.382217954732     -0.512873078320     -0.905149627835
